Version 4.1
SHEET 1 1124 1176
WIRE 224 -400 224 -480
WIRE 64 -288 64 -352
WIRE 224 -272 224 -320
WIRE 160 -224 64 -224
WIRE 64 -208 64 -224
WIRE 432 -128 432 -224
WIRE 64 -96 64 -128
WIRE 224 -80 224 -176
WIRE 368 -80 224 -80
WIRE 224 -16 224 -80
WIRE 224 -16 64 -16
WIRE 64 0 64 -16
WIRE 432 0 432 -32
WIRE -2048 32 -2048 -16
WIRE -1872 32 -1872 -16
WIRE 224 64 224 -16
WIRE -1088 112 -1088 32
WIRE -1088 112 -1248 112
WIRE -944 112 -1088 112
WIRE 64 112 64 80
WIRE 160 112 64 112
WIRE 432 112 432 80
WIRE 576 112 432 112
WIRE 720 112 640 112
WIRE 432 128 432 112
WIRE -2048 144 -2048 112
WIRE -1872 144 -1872 112
WIRE -256 144 -256 64
WIRE 64 160 64 112
WIRE 720 160 720 112
WIRE -1248 208 -1248 112
WIRE -944 208 -944 112
WIRE -496 208 -496 112
WIRE -256 256 -256 224
WIRE -112 256 -256 256
WIRE 64 256 64 240
WIRE 64 256 -48 256
WIRE 224 256 224 160
WIRE 224 256 64 256
WIRE 432 256 432 208
WIRE 720 272 720 240
WIRE -256 288 -256 256
WIRE 224 304 224 256
WIRE 368 304 224 304
WIRE -1248 336 -1248 288
WIRE -704 336 -1248 336
WIRE -496 336 -496 288
WIRE -496 336 -640 336
WIRE -320 336 -496 336
WIRE -1248 368 -1248 336
WIRE -944 368 -944 288
WIRE -496 368 -496 336
WIRE -1312 416 -1552 416
WIRE -816 416 -880 416
WIRE -1552 432 -1552 416
WIRE -256 432 -256 384
WIRE -816 464 -816 416
WIRE 432 464 432 352
WIRE -1248 496 -1248 464
WIRE -944 496 -944 464
WIRE -1552 528 -1552 512
WIRE -496 576 -496 448
WIRE -1248 608 -1248 576
WIRE -1088 608 -1248 608
WIRE -944 608 -944 576
WIRE -944 608 -1088 608
WIRE -1424 640 -1424 576
WIRE -256 640 -256 512
WIRE -1424 752 -1424 720
WIRE -1248 752 -1424 752
WIRE -1424 800 -1424 752
WIRE -1088 800 -1088 608
WIRE -1248 848 -1248 752
WIRE -1248 848 -1360 848
WIRE -1152 848 -1248 848
WIRE -1424 960 -1424 896
WIRE -1088 960 -1088 896
FLAG -1872 144 0
FLAG -2048 144 0
FLAG -2048 -16 VCC
FLAG -1872 -16 VSS
FLAG -816 464 0
FLAG 64 -96 0
FLAG 720 272 0
FLAG -1088 32 VCC
FLAG -496 112 VCC
FLAG -256 64 VCC
FLAG 224 -480 VCC
FLAG 432 -224 VCC
FLAG -1424 576 VCC
FLAG -1088 960 VSS
FLAG -256 640 VSS
FLAG -496 576 VSS
FLAG 432 464 VSS
FLAG 64 -352 VCC
FLAG -1424 960 VSS
FLAG -1552 528 0
SYMBOL npn 368 -128 R0
SYMATTR InstName Q1
SYMATTR Value BD139
SYMBOL npn 160 64 R0
SYMATTR InstName Q2
SYMATTR Value BC547B
SYMBOL npn -320 288 R0
SYMATTR InstName Q3
SYMATTR Value BC547B
SYMBOL npn -1312 368 R0
SYMATTR InstName Q4
SYMATTR Value BC547B
SYMBOL npn -880 368 M0
SYMATTR InstName Q5
SYMATTR Value BC547B
SYMBOL npn -1152 800 R0
SYMATTR InstName Q6
SYMATTR Value BC547B
SYMBOL npn -1360 800 M0
SYMATTR InstName Q7
SYMATTR Value BC547B
SYMBOL pnp 368 352 M180
SYMATTR InstName Q8
SYMATTR Value BD140
SYMBOL pnp 160 -176 M180
SYMATTR InstName Q9
SYMATTR Value BC557B
SYMBOL res -1440 624 R0
SYMATTR InstName R1
SYMATTR Value 80k
SYMBOL res -960 192 R0
SYMATTR InstName R2
SYMATTR Value 8.1k
SYMBOL res -1264 192 R0
SYMATTR InstName R3
SYMATTR Value 8.1k
SYMBOL res 416 -16 R0
SYMATTR InstName R4
SYMATTR Value 0.5
SYMBOL res 416 112 R0
SYMATTR InstName R5
SYMATTR Value 0.5
SYMBOL res 48 -16 R0
SYMATTR InstName R6
SYMATTR Value 700
SYMBOL res 48 144 R0
SYMATTR InstName R7
SYMATTR Value 700
SYMBOL res -272 128 R0
SYMATTR InstName R8
SYMATTR Value 4.7k
SYMBOL res -272 416 R0
SYMATTR InstName R9
SYMATTR Value 1.5k
SYMBOL res -512 192 R0
SYMATTR InstName R10
SYMATTR Value 5.1k
SYMBOL res -512 352 R0
SYMATTR InstName R11
SYMATTR Value 6k
SYMBOL res 208 -416 R0
SYMATTR InstName R12
SYMATTR Value 4.1
SYMBOL res 48 -224 R0
SYMATTR InstName R13
SYMATTR Value 400
SYMBOL cap -640 320 R90
WINDOW 0 0 32 VBottom 2
WINDOW 3 32 32 VTop 2
SYMATTR InstName C1
SYMATTR Value 470µ
SYMBOL cap -48 240 R90
WINDOW 0 0 32 VBottom 2
WINDOW 3 32 32 VTop 2
SYMATTR InstName C2
SYMATTR Value 470µ
SYMBOL cap 640 96 R90
WINDOW 0 0 32 VBottom 2
WINDOW 3 32 32 VTop 2
SYMATTR InstName C3
SYMATTR Value 470µ
SYMBOL res 704 144 R0
SYMATTR InstName R14
SYMATTR Value 16
SYMBOL voltage -2048 16 R0
WINDOW 123 0 0 Left 0
WINDOW 39 0 0 Left 0
SYMATTR InstName V1
SYMATTR Value 15
SYMBOL voltage -1872 16 R0
WINDOW 123 0 0 Left 0
WINDOW 39 0 0 Left 0
SYMATTR InstName V2
SYMATTR Value -15
SYMBOL zener 80 -224 R180
WINDOW 0 24 64 Left 2
WINDOW 3 24 0 Left 2
SYMATTR InstName D1
SYMATTR Value BZX84C13VLY
SYMBOL res -1264 480 R0
SYMATTR InstName R15
SYMATTR Value 110
SYMBOL res -960 480 R0
SYMATTR InstName R16
SYMATTR Value 110
SYMBOL voltage -1552 416 R0
WINDOW 123 0 0 Left 0
WINDOW 39 0 0 Left 0
SYMATTR InstName V3
SYMATTR Value SINE(0 20m 10k)
TEXT -1616 -256 Left 2 !.lib BC557B.lib\n.lib BC547B.lib\n.lib BD139.lib\n.lib BD140.lib
TEXT -2080 1056 Left 2 !.tran 0.2
